Circuit: * C:\Users\krish\OneDrive\Documents\LTspiceXVII\Project.asc

Direct Newton iteration failed to find .op point.  (Use ".option noopiter" to skip.)
Starting Gmin stepping
Gmin = 10
Gmin = 1.07374
vernier = 0.5
vernier = 0.25
vernier = 0.125
vernier = 0.0625
Gmin = 1.08884
vernier = 0.03125
vernier = 0.015625
Gmin = 1.03523
vernier = 0.0078125
vernier = 0.0104167
vernier = 0.00520833
Gmin = 1.02119
vernier = 0.00260417
Gmin = 1.01391
vernier = 0.00347222
vernier = 0.00173611
vernier = 0.00231481
vernier = 0.00115741
Gmin = 1.01142
vernier = 0.00154321
vernier = 0.000771604
Gmin = 1.00928
vernier = 0.00102881
vernier = 0.000514403
Gmin = 1.00759
vernier = 0.00068587
vernier = 0.000514403
Gmin = 1.00638
vernier = 0.00068587
vernier = 0.000514402
Gmin = 0
Gmin = 0
Gmin stepping failed

Starting source stepping with srcstepmethod=0
Source Step = 3.0303%
Source Step = 33.3333%
Source Step = 63.6364%
Source Step = 75.7605%
Source Step = 75.7901%
Source Step = 75.8197%
Source Step = 75.8493%
Source Step = 75.8789%
Source Step = 75.9085%
vernier = 0.00146484
Source Step = 75.9499%
Source Step = 75.9943%
Source Step = 76.0387%
Source Step = 76.0831%
Source Step = 76.1275%
vernier = 0.00219727
Source Step = 76.1874%
Source Step = 76.254%
Source Step = 76.3206%
Source Step = 76.3872%
Source Step = 76.4537%
vernier = 0.0032959
Source Step = 76.5403%
Source Step = 76.6402%
Source Step = 76.7401%
Source Step = 76.8399%
Source Step = 76.9398%
vernier = 0.00494385
Source Step = 77.0647%
Source Step = 77.2145%
Source Step = 77.3643%
Source Step = 77.5141%
Source Step = 77.6639%
vernier = 0.00741577
Source Step = 77.8437%
Source Step = 78.0684%
Source Step = 78.2931%
Source Step = 78.5178%
Source Step = 78.7426%
vernier = 0.0111237
Source Step = 79.001%
Source Step = 79.3381%
Source Step = 79.6752%
Source Step = 80.0122%
Source Step = 80.3493%
vernier = 0.0166855
Source Step = 80.7201%
Source Step = 81.2257%
Source Step = 81.7313%
Source Step = 82.237%
Source Step = 82.7426%
vernier = 0.0250282
Source Step = 83.2735%
Source Step = 84.0319%
Source Step = 84.7904%
Source Step = 85.5488%
Source Step = 86.3072%
Source Step = 87.0656%
vernier = 0.0375423
Source Step = 88.2033%
Source Step = 89.3409%
Source Step = 90.4786%
Source Step = 91.6162%
Source Step = 92.7539%
vernier = 0.0563135
Source Step = 94.4035%
Source Step = 94.5901%
Source Step = 94.6168%
Source Step = 94.6434%
Source Step = 94.6701%
Source Step = 94.6968%
Source Step = 94.7234%
vernier = 0.00131985
Source Step = 94.7621%
Source Step = 94.8021%
Source Step = 94.8421%
Source Step = 94.8821%
Source Step = 94.9221%
Source Step = 94.9621%
Source Step = 95.0021%
Source Step = 95.0421%
Source Step = 95.0821%
Source Step = 95.1221%
Source Step = 95.162%
Source Step = 95.202%
Source Step = 95.242%
Source Step = 95.282%
vernier = 0.00197977
Source Step = 95.334%
Source Step = 95.394%
Source Step = 95.454%
Source Step = 95.514%
Source Step = 95.574%
vernier = 0.00296966
Source Step = 95.649%
Source Step = 95.739%
Source Step = 95.829%
Source Step = 95.919%
Source Step = 96.0089%
vernier = 0.00445449
Source Step = 96.1169%
Source Step = 96.2519%
Source Step = 96.3869%
Source Step = 96.5219%
Source Step = 96.6569%
Source Step = 96.6872%
Source Step = 96.721%
Source Step = 96.7547%
Source Step = 96.7885%
Source Step = 96.8222%
Source Step = 96.856%
Source Step = 96.8897%
Source Step = 96.9235%
Source Step = 96.9572%
Source Step = 96.991%
Source Step = 97.0247%
Source Step = 97.0585%
Source Step = 97.0922%
Source Step = 97.1259%
Source Step = 97.1597%
Source Step = 97.1934%
Source Step = 97.2272%
Source Step = 97.2609%
Source Step = 97.2947%
Source Step = 97.3284%
Source Step = 97.3622%
Source Step = 97.3959%
Source Step = 97.4297%
Source Step = 97.4634%
Source Step = 97.4972%
Source Step = 97.5309%
Source Step = 97.5646%
Source Step = 97.5984%
Source Step = 97.6321%
Source Step = 97.6659%
Source Step = 97.6996%
vernier = 0.00167043
Source Step = 97.7384%
Source Step = 97.7891%
Source Step = 97.8397%
Source Step = 97.8903%
Source Step = 97.9409%
vernier = 0.00250565
Source Step = 97.9966%
Source Step = 98.0725%
Source Step = 98.1485%
Source Step = 98.2244%
Source Step = 98.3003%
vernier = 0.00375847
Source Step = 98.38%
Source Step = 98.4939%
Source Step = 98.6078%
Source Step = 98.7217%
Source Step = 98.8356%
Source Step = 98.9495%
vernier = 0.00563771
Source Step = 99.1203%
Source Step = 99.2912%
Source Step = 99.462%
Source Step = 99.6329%
Source Step = 99.8037%
vernier = 0.00845657
Source stepping succeeded in finding the operating point.


Date: Mon Jan 11 14:47:28 2021
Total elapsed time: 1463.589 seconds.

tnom = 27
temp = 27
method = modified trap
totiter = 6699897
traniter = 6659206
tranpoints = 3269102
accept = 3264375
rejected = 4727
matrix size = 320
fillins = 1675
solver = Normal
Thread vector: 78.8/38.3[4] 29.8/11.5[4] 25.1/14.0[4] 5.9/5.4[2]  2592/500
Matrix Compiler1: 217.98 KB object code size  138.6/74.6/[73.1]
Matrix Compiler2: 55.10 KB object code size  22.0/21.7/[8.1]

